Version 4
SHEET 1 1120 744
WIRE -384 96 -480 96
WIRE -240 96 -384 96
WIRE -112 96 -240 96
WIRE 32 96 -112 96
WIRE 176 96 32 96
WIRE 400 96 272 96
WIRE 528 96 400 96
WIRE 672 96 528 96
WIRE 784 96 672 96
WIRE 400 192 400 96
WIRE -112 208 -112 96
WIRE 32 208 32 96
WIRE 64 208 32 208
WIRE 224 208 224 160
WIRE 224 208 160 208
WIRE -240 224 -240 96
WIRE -384 304 -384 96
WIRE 224 304 224 208
WIRE 256 304 224 304
WIRE 528 304 528 96
WIRE 672 304 672 96
WIRE 224 352 224 304
WIRE 400 352 224 352
WIRE -240 384 -240 288
WIRE -112 384 -112 288
WIRE -112 384 -240 384
WIRE 112 384 112 272
WIRE 112 384 -112 384
WIRE 144 384 112 384
WIRE 112 480 112 384
WIRE -384 624 -384 384
WIRE -352 624 -384 624
WIRE -112 624 -112 544
WIRE -112 624 -352 624
WIRE 112 624 112 544
WIRE 112 624 -112 624
WIRE 400 624 400 528
WIRE 400 624 112 624
WIRE 528 624 528 368
WIRE 528 624 400 624
WIRE 672 624 672 384
WIRE 672 624 528 624
WIRE -352 656 -352 624
FLAG -352 656 0
FLAG -480 96 Vin
IOPIN -480 96 In
FLAG 784 96 Vout
IOPIN 784 96 Out
FLAG 256 304 Vb2
IOPIN 256 304 Out
FLAG 144 384 Vb1
IOPIN 144 384 Out
SYMBOL npn 176 160 R270
SYMATTR InstName Q1
SYMATTR Value 2SC5658
SYMBOL npn 64 272 R270
SYMATTR InstName Q2
SYMATTR Value BC547C
SYMBOL res 416 544 R180
WINDOW 0 36 76 Left 2
WINDOW 3 36 40 Left 2
SYMATTR InstName R1
SYMATTR Value 2k
SYMBOL res -96 560 R180
WINDOW 0 36 76 Left 2
WINDOW 3 36 40 Left 2
SYMATTR InstName R2
SYMATTR Value 10k
SYMBOL diode -224 288 R180
WINDOW 0 24 64 Left 2
WINDOW 3 24 0 Left 2
SYMATTR InstName D1
SYMBOL cap 96 480 R0
SYMATTR InstName C1
SYMATTR Value 120µ
SYMBOL res 656 288 R0
SYMATTR InstName R3
SYMATTR Value 3k
SYMBOL cap 512 304 R0
SYMATTR InstName C2
SYMATTR Value 120µ
SYMBOL res -128 192 R0
SYMATTR InstName R4
SYMATTR Value 10k
SYMBOL voltage -384 288 R0
WINDOW 3 -301 104 Left 2
WINDOW 123 0 0 Left 0
WINDOW 39 0 0 Left 0
SYMATTR InstName V1
SYMATTR Value PULSE(380 390 0 2ms 8ms 0 10ms)
SYMBOL res 384 176 R0
SYMATTR InstName R5
SYMATTR Value 120
TEXT -128 688 Left 2 !.tran 0 10s 9940ms
