Version 4
SHEET 1 880 744
WIRE -304 96 -496 96
WIRE -192 96 -304 96
WIRE -80 96 -192 96
WIRE 16 96 -80 96
WIRE 176 96 16 96
WIRE 544 96 272 96
WIRE 576 96 544 96
WIRE -192 208 -192 96
WIRE -80 208 -80 96
WIRE 16 208 16 96
WIRE 64 208 16 208
WIRE 224 208 224 160
WIRE 224 208 160 208
WIRE -304 304 -304 96
WIRE 544 304 544 96
WIRE -192 368 -192 272
WIRE -80 368 -80 288
WIRE -80 368 -192 368
WIRE 112 368 112 272
WIRE 112 368 -80 368
WIRE 224 368 224 208
WIRE 368 368 368 304
WIRE 368 368 224 368
WIRE 368 432 368 368
WIRE 112 480 112 368
WIRE -304 624 -304 384
WIRE -80 624 -80 544
WIRE -80 624 -304 624
WIRE 112 624 112 544
WIRE 112 624 -80 624
WIRE 368 624 368 512
WIRE 368 624 112 624
WIRE 544 624 544 384
WIRE 544 624 368 624
WIRE -304 672 -304 624
FLAG -304 672 0
FLAG -496 96 -Vin
IOPIN -496 96 In
FLAG 576 96 -Vout
IOPIN 576 96 Out
SYMBOL res -64 304 R180
WINDOW 0 36 76 Left 2
WINDOW 3 36 40 Left 2
SYMATTR InstName R2
SYMATTR Value 10k
SYMBOL diode -208 208 R0
SYMATTR InstName D1
SYMBOL cap 96 480 R0
SYMATTR InstName C1
SYMATTR Value 1000µ
SYMBOL res 528 288 R0
SYMATTR InstName R3
SYMATTR Value 30
SYMBOL voltage -304 400 R180
WINDOW 123 0 0 Left 0
WINDOW 39 0 0 Left 0
SYMATTR InstName V1
SYMATTR Value PULSE(38 39 0 2ms 8ms 0 10ms)
SYMBOL pnp 64 272 R270
SYMATTR InstName Q1
SYMATTR Value BC557C
SYMBOL pnp 176 160 R270
SYMATTR InstName Q2
SYMATTR Value 2SAR553P
SYMBOL res 352 208 R0
SYMATTR InstName R1
SYMATTR Value 120
SYMBOL res 352 416 R0
SYMATTR InstName R4
SYMATTR Value 2k
SYMBOL res -96 448 R0
SYMATTR InstName R5
SYMATTR Value 10k
TEXT -144 688 Left 2 !.tran 0 10s 9940ms
